24 

C        2.331690605     -0.356149267     -1.562324582
C        2.331690605     -0.380629315     -0.132583463
C        2.331690605     -1.576960654      0.595383883
C        2.331690605      0.876215484      0.580710385
C        2.331690605      0.864662047      1.981071640
C        2.331690605     -0.331669291      2.709038986
C        2.331690605     -1.588514090      1.995745138
C        2.331690605      0.830192867     -2.246721159
C        2.331690605      2.091142145     -0.173419676
H        2.331690605      1.810647039      2.517944033
C        2.331690605     -0.356149339      4.138780105
C        2.331690605     -2.803440751      2.749875199
C        2.331690605     -2.782709330      4.119319079
C        2.331690605     -1.542490603      4.823177175
H        2.331690605      0.590262806      4.673244583
H        2.331690605     -3.747577497      2.211401400
H        2.331690605     -3.713454166      4.678930783
H        2.331690605     -1.545688107      5.909197395
C        2.331690605      2.070410724     -1.542863556
H        2.331690605     -1.302561413     -2.096789060
H        2.331690605     -2.522945645      0.058511490
H        2.331690605      0.833389501     -3.332741872
H        2.331690605      3.035278891      0.365054123
H        2.331690605      3.001155559     -2.102475260

